/*--------------------------------*- C++ -*----------------------------------*\
  =========                 |
  \\      /  F ield         | OpenFOAM: The Open Source CFD Toolbox
   \\    /   O peration     | Website:  https://openfoam.org
    \\  /    A nd           | Version:  11
     \\/     M anipulation  |
\*---------------------------------------------------------------------------*/
// -----------------------------tensor_xf_2024------------------------------- //

FoamFile
{
    format      ascii;
    class       dictionary;
    object      blockMeshDict;
}

// * * * * * * * * * * * * * * * * * * * * * * * * * * * * * * * * * * * * * //

convertToMeters 1;

vertices
(
    (-14.191 -8.85e-7 0) //0
    (35.3636 -8.85e-7 0) //1
    (35.3636 8.1072 0) //2
    (-14.191 8.1072 0) //3

    (-14.191 -8.85e-7 7.632) //4
    (35.3636 -8.85e-7 7.632) //5
    (35.3636 8.1072 7.632) //6
    (-14.191 8.1072 7.632) //7
);

blocks
(
    hex (0 1 2 3 4 5 6 7) (150 21 13) 
    simpleGrading 
    (
      (
        (0.2 0.2 0.5) //(location, num of cells, expansion ratio)
        (0.3 0.4 1)
        (0.5 0.4 2)
      ) //x direction
      (
        (0.3 0.4 1)
        (0.3 0.4 1)
        (0.4 0.2 2)
      ) //y direction
      (
        (0.3 0.4 1)
        (0.3 0.4 1)
        (0.4 0.2 2)
      ) //z-direction
    )


);

edges
(
);

boundary
(
    inlet
    {
        type patch;
        faces
        (
            (4 5 6 7)
            (0 3 7 4)
            (3 2 6 7)
            (1 2 6 5)
        );
    }
    ground
    {
        type wall;
        faces
        (
            (0 1 5 4)
        );
    }
    symmetry
    {
        type symmetry;
        faces
        (
            (0 1 2 3)
        );
    }
    
);

// ************************************************************************* //
