/*--------------------------------*- C++ -*----------------------------------*\
  =========                 |
  \\      /  F ield         | OpenFOAM: The Open Source CFD Toolbox
   \\    /   O peration     | Website:  https://openfoam.org
    \\  /    A nd           | Version:  11
     \\/     M anipulation  |
\*---------------------------------------------------------------------------*/
// -----------------------------tensor_xf_2024------------------------------- //
FoamFile
{
    format      ascii;
    class       volScalarField;
    location    "0";
    object      omega;
}
// * * * * * * * * * * * * * * * * * * * * * * * * * * * * * * * * * * * * * //

dimensions      [0 0 -1 0 0 0 0];

internalField   uniform 2600;

boundaryField
{
    inlet
    {
        type            fixedValue;
        value           uniform 1e-8;
    }

    object
    {
        type            omegaWallFunction;
        value           $internalField;
    }
    ground
    {
        type            omegaWallFunction;
        value           $internalField;
    }

    symmetry
    {
        type            symmetry;
    }
}


// ************************************************************************* //