/*--------------------------------*- C++ -*----------------------------------*\
| =========                 |                                                 |
| \\      /  F ield         | OpenFOAM: The Open Source CFD Toolbox           |
|  \\    /   O peration     | Version:  v2406                                 |
|   \\  /    A nd           | Website:  www.openfoam.com                      |
|    \\/     M anipulation  |                                                 |
\*---------------------------------------------------------------------------*/

FoamFile
{
    format      ascii;
    class       volScalarField;
    location    "0";
    object      omega;
}
// * * * * * * * * * * * * * * * * * * * * * * * * * * * * * * * * * * * * * //

dimensions      [0 0 -1 0 0 0 0];

internalField   uniform 2600;

boundaryField
{
    inlet
    {
        type            fixedValue;
        value           uniform 1e-8;
    }

    object
    {
        type            omegaWallFunction;
        value           $internalField;
    }
    ground
    {
        type            omegaWallFunction;
        value           $internalField;
    }

    symmetry
    {
        type            symmetry;
    }
}


// ************************************************************************* //
// **************************** tensorXF 2025 ****************************** //
// **************************** pttensor.com ******************************* //